opendss_networks/LV13_58bus/Switches.dss
! new line.Switch_260_OPEN lineCode=ughv_400al_triplex_ug_4w_bundled bus1=B1861 bus2=B1519 length=0.00100000000000 units=km switch=y phases=4
new line.Switch_807_CLOSED lineCode=ughv_400al_triplex_ug_4w_bundled bus1=B2959 bus2=B1057 length=0.00100000000000 units=km switch=y phases=4
new line.Switch_1078_CLOSED lineCode=ughv_400al_triplex_ug_4w_bundled bus1=B870 bus2=B2418 length=0.00100000000000 units=km switch=y phases=4
new line.Switch_1235_CLOSED lineCode=ughv_400al_triplex_ug_4w_bundled bus1=B2966 bus2=B660 length=0.00100000000000 units=km switch=y phases=4
new line.Switch_2037_CLOSED lineCode=ughv_400al_triplex_ug_4w_bundled bus1=B1323 bus2=B1587 length=0.00100000000000 units=km switch=y phases=4
new line.Switch_2311_CLOSED lineCode=ughv_400al_triplex_ug_4w_bundled bus1=B1260 bus2=B963 length=0.00100000000000 units=km switch=y phases=4
new line.Switch_2474_CLOSED lineCode=ughv_400al_triplex_ug_4w_bundled bus1=B136 bus2=B1564 length=0.00100000000000 units=km switch=y phases=4
! new line.Switch_2661_OPEN lineCode=ughv_400al_triplex_ug_4w_bundled bus1=B3098 bus2=B1568 length=0.00100000000000 units=km switch=y phases=4
new line.Switch_3177_CLOSED lineCode=ughv_400al_triplex_ug_4w_bundled bus1=B520 bus2=B207 length=0.00100000000000 units=km switch=y phases=4
new line.Switch_3499_CLOSED lineCode=ughv_400al_triplex_ug_4w_bundled bus1=B2416 bus2=B434 length=0.00100000000000 units=km switch=y phases=4
new line.Switch_3581_CLOSED lineCode=ughv_400al_triplex_ug_4w_bundled bus1=B2836 bus2=B2165 length=0.00100000000000 units=km switch=y phases=4
! new line.Switch_3604_OPEN lineCode=ughv_400al_triplex_ug_4w_bundled bus1=B3115 bus2=B2608 length=0.00100000000000 units=km switch=y phases=4
new line.Switch_4508_CLOSED lineCode=ughv_400al_triplex_ug_4w_bundled bus1=B1650 bus2=B3398 length=0.00100000000000 units=km switch=y phases=4
